*MODEL INPUT FILE            A     1     1     1     1     0
*FILES              
MODEL          MZCER048
FILEX          USMZ8001.SNX                                                                                 
FILEA          USMZ8001.SNA                                                                                 
FILET          USMZ8001.SNT                                                                                 
SPECIES        MZCER048.SPE C:\DSSAT48\GENOTYPE\                                                            
ECOTYPE        MZCER048.ECO C:\DSSAT48\GENOTYPE\                                                            
CULTIVAR       MZCER048.CUL                                                                                 
PESTS          MZCER048.PST C:\DSSAT48\PEST\                                                                
SOILS          US.SOL                                                                                       
WEATHERW       GHCP.WTH                                                                                     
OUTPUT         OVERVIEW
*SIMULATION CONTROL 
                  14     1     S 2010032  2150 Rainfed                  
                   Y     Y     N     N     N     N     N     N     M
                   M     M     E     R     S     C     R     1     P     S     2     D     0
                   F     R     D     D     M
                   N     E     Y    14     N     N     N     N     N     N     0     N     N
!AUTOMATIC MANAGEM  
               2010105 2010135   40.  100.   30.   40.   10.
                 30.   50.  100. GS000 IR001  10.0 1.000
                 30.   10.   50. FE001 GS000
                100.     1   20.
                     0     -99  100.    0.
*EXP.DETAILS        
  1USMZ8001 SN USA, maize template file                                    
*TREATMENTS         
  1 1 1 0 Maize rainfed            
*CULTIVARS          
   MZ 990001 LONG SEASON     
*FIELDS             
   GENERIC2 GHCP.WTH   0.0  -99.   -99  -99. 100.0   -99 Loam   -99. US02445845-99.00 -99.0
   -120.0000000000   43.0000000000   -99.000               1.0  100.   1.0 -99.0 FH302    10
*INITIAL CONDITIONS 
   MZ    2010032    10     0  1.00  1.00 -99.0   100  0.80  0.00  100.    5.
      5. 0.142 0.030 0.290
     15. 0.152 0.030 0.290
     30. 0.166 0.030 0.290
     45. 0.181 0.030 0.290
     60. 0.181 0.030 0.290
     80. 0.180 0.030 0.290
    100. 0.180 0.030 0.290
    150. 0.169 0.030 0.290
    200. 0.169 0.030 0.290
*PLANTING DETAILS   
       -99     -99   5.0   5.0     S     R   70.  -99.   5.0  -99.  -99. -99.0 -99.0 -99.0
*IRRIGATION         
   1.000    0.    0.    0. GS000 IR001   0.0
*FERTILIZERS        
         0 FE005 AP002    5.   60.    0.  -99.  -99.  -99.   -99
        25 FE005 AP002    5.   80.    0.  -99.  -99.  -99.   -99
        50 FE005 AP002    5.   60.    0.  -99.  -99.  -99.   -99
*RESIDUES           
         0 RE003   250  0.00  0.00  0.00    0.  -99.   -99
*CHEMICALS          
*TILLAGE            
*ENVIRONMENT        
*HARVEST            
*SOIL               
 US02445845    USA       Loam   -99.    ISRIC soilgrids + HC27                         
 -99              US      42.792-119.542     HC_GEN0011                                    
 BK     0.10   6.0  0.50   75.  1.00  1.00 SA001 SA001 SA001 -99  
    5.       0.112 0.231 0.390 1.000  1.13  1.37 1.400  18.5  34.8 -99.0 0.120  7.89-99.00 27.80-99.00
   15.       0.122 0.241 0.393 0.850 0.960  1.39 0.870  20.2  34.0 -99.0 0.090  7.96-99.00 24.40-99.00
   30.       0.136 0.256 0.397 0.700 0.760  1.42 0.690  22.6  32.8 -99.0 0.070  8.06-99.00 23.60-99.00
   45.       0.151 0.271 0.401 0.500 0.590  1.47 0.630  25.0  31.7 -99.0 0.060  8.17-99.00 24.70-99.00
   60.       0.151 0.271 0.401 0.500 0.590  1.47 0.630  25.0  31.7 -99.0 0.060  8.17-99.00 24.70-99.00
   80.       0.150 0.269 0.400 0.380 0.610  1.53 0.610  24.9  31.1 -99.0 0.050  8.31-99.00 24.80-99.00
  100.       0.150 0.269 0.400 0.380 0.610  1.53 0.610  24.9  31.1 -99.0 0.050  8.31-99.00 24.80-99.00
  150.       0.140 0.256 0.397 0.050 0.740  1.58 0.600  23.2  30.7 -99.0 0.050  8.48-99.00 24.80-99.00
  200.       0.140 0.256 0.397 0.050 0.740  1.58 0.600  23.2  30.7 -99.0 0.050  8.48-99.00 24.80-99.00
                    
    5.-99.00 -99.0 -99.0 -99.0 -99.0 -99.0 -99.0 -99.0 -99.0 -99.0-99.00 -99.0 -99.0 -99.0 -99.0 -99.0  -99.  -99.
   15.-99.00 -99.0 -99.0 -99.0 -99.0 -99.0 -99.0 -99.0 -99.0 -99.0-99.00 -99.0 -99.0 -99.0 -99.0 -99.0  -99.  -99.
   30.-99.00 -99.0 -99.0 -99.0 -99.0 -99.0 -99.0 -99.0 -99.0 -99.0-99.00 -99.0 -99.0 -99.0 -99.0 -99.0  -99.  -99.
   45.-99.00 -99.0 -99.0 -99.0 -99.0 -99.0 -99.0 -99.0 -99.0 -99.0-99.00 -99.0 -99.0 -99.0 -99.0 -99.0  -99.  -99.
   60.-99.00 -99.0 -99.0 -99.0 -99.0 -99.0 -99.0 -99.0 -99.0 -99.0-99.00 -99.0 -99.0 -99.0 -99.0 -99.0  -99.  -99.
   80.-99.00 -99.0 -99.0 -99.0 -99.0 -99.0 -99.0 -99.0 -99.0 -99.0-99.00 -99.0 -99.0 -99.0 -99.0 -99.0  -99.  -99.
  100.-99.00 -99.0 -99.0 -99.0 -99.0 -99.0 -99.0 -99.0 -99.0 -99.0-99.00 -99.0 -99.0 -99.0 -99.0 -99.0  -99.  -99.
  150.-99.00 -99.0 -99.0 -99.0 -99.0 -99.0 -99.0 -99.0 -99.0 -99.0-99.00 -99.0 -99.0 -99.0 -99.0 -99.0  -99.  -99.
  200.-99.00 -99.0 -99.0 -99.0 -99.0 -99.0 -99.0 -99.0 -99.0 -99.0-99.00 -99.0 -99.0 -99.0 -99.0 -99.0  -99.  -99.
                    
    5.-99.00-99.00-99.00-99.00
   15.-99.00-99.00-99.00-99.00
   30.-99.00-99.00-99.00-99.00
   45.-99.00-99.00-99.00-99.00
   60.-99.00-99.00-99.00-99.00
   80.-99.00-99.00-99.00-99.00
  100.-99.00-99.00-99.00-99.00
  150.-99.00-99.00-99.00-99.00
  200.-99.00-99.00-99.00-99.00
*CULTIVAR           
990001 LONG SEASON      IB0001  320.0 0.520 940.0 620.0  6.00 38.90
