*MODEL INPUT FILE            A     1     1     1     1     0
*FILES              
MODEL          MZCER048
FILEX          GHMZ8001.SNX                                                                                 
FILEA          GHMZ8001.SNA                                                                                 
FILET          GHMZ8001.SNT                                                                                 
SPECIES        MZCER048.SPE C:\DSSAT48\GENOTYPE\                                                            
ECOTYPE        MZCER048.ECO C:\DSSAT48\GENOTYPE\                                                            
CULTIVAR       MZCER048.CUL                                                                                 
PESTS          MZCER048.PST C:\DSSAT48\PEST\                                                                
SOILS          LK.SOL                                                                                       
WEATHERW       GHCP.WTH                                                                                     
OUTPUT         OVERVIEW
*SIMULATION CONTROL 
                  10     1     S 2010121  2150 Rainfed                  
                   Y     Y     N     N     N     N     N     N     M
                   M     M     E     R     S     C     R     1     P     S     2     D     0
                   F     R     D     D     M
                   N     E     Y    14     N     N     N     N     N     N     0     N     N
!AUTOMATIC MANAGEM  
               2010244 2010303   40.  100.   30.   40.   10.
                 30.   50.  100. GS000 IR001  10.0 1.000
                 30.   10.   50. FE001 GS000
                100.     1   20.
                     0     -99  100.    0.
*EXP.DETAILS        
  1GHMZ8001 SN Ghana, maize template file                                  
*TREATMENTS         
  1 1 1 0 Maize rainfed            
*CULTIVARS          
   MZ 990001 LONG SEASON     
*FIELDS             
   GENERIC2 GHCP.WTH   0.0  -99.   -99  -99. 100.0   -99 Loam   -99. LK04314485-99.00 -99.0
     80.3750000000    6.6250000000   -99.000               1.0  100.   1.0 -99.0 FH302    10
*INITIAL CONDITIONS 
   MZ    2010121    10     0  1.00  1.00 -99.0   100  0.80  0.00  100.    5.
      5. 0.193 0.040 0.350
     15. 0.204 0.040 0.350
     30. 0.218 0.040 0.350
     45. 0.233 0.040 0.350
     60. 0.233 0.040 0.350
     80. 0.232 0.040 0.350
    100. 0.232 0.040 0.350
    150. 0.223 0.040 0.350
    200. 0.223 0.040 0.350
*PLANTING DETAILS   
       -99     -99   5.0   5.0     S     R   70.  -99.   5.0  -99.  -99. -99.0 -99.0 -99.0
*IRRIGATION         
   1.000    0.    0.    0. GS000 IR001   0.0
*FERTILIZERS        
         0 FE005 AP002    5.   50.    0.  -99.  -99.  -99.   -99
        30 FE005 AP002    5.   50.    0.  -99.  -99.  -99.   -99
*RESIDUES           
         0 RE003   250  0.00  0.00  0.00    0.  -99.   -99
*CHEMICALS          
*TILLAGE            
*ENVIRONMENT        
*HARVEST            
*SOIL               
 LK04314485    LKA       Loam   -99.    ISRIC soilgrids + HC27                         
 -99              LK       6.792  80.458     HC_GEN0011                                    
 BK     0.10   6.0  0.50   75.  1.00  1.00 SA001 SA001 SA001 -99  
    5.       0.161 0.290 0.411 1.000 0.510  1.11 1.400  26.7  35.1 -99.0 0.120  3.92-99.00 13.10-99.00
   15.       0.172 0.301 0.416 0.850 0.430  1.13 0.870  28.5  34.3 -99.0 0.090  3.99-99.00 11.40-99.00
   30.       0.186 0.316 0.422 0.700 0.340  1.16 0.690  31.0  33.1 -99.0 0.070  4.08-99.00 11.10-99.00
   45.       0.200 0.330 0.428 0.500 0.270  1.21 0.630  33.3  31.9 -99.0 0.060  4.20-99.00 11.60-99.00
   60.       0.200 0.330 0.428 0.500 0.270  1.21 0.630  33.3  31.9 -99.0 0.060  4.20-99.00 11.60-99.00
   80.       0.200 0.329 0.427 0.380 0.270  1.27 0.610  33.4  31.3 -99.0 0.050  4.34-99.00 11.70-99.00
  100.       0.200 0.329 0.427 0.380 0.270  1.27 0.610  33.4  31.3 -99.0 0.050  4.34-99.00 11.70-99.00
  150.       0.191 0.318 0.421 0.050 0.310  1.33 0.600  31.9  31.0 -99.0 0.050  4.52-99.00 11.70-99.00
  200.       0.191 0.318 0.421 0.050 0.310  1.33 0.600  31.9  31.0 -99.0 0.050  4.52-99.00 11.70-99.00
                    
    5.-99.00 -99.0 -99.0 -99.0 -99.0 -99.0 -99.0 -99.0 -99.0 -99.0-99.00 -99.0 -99.0 -99.0 -99.0 -99.0  -99.  -99.
   15.-99.00 -99.0 -99.0 -99.0 -99.0 -99.0 -99.0 -99.0 -99.0 -99.0-99.00 -99.0 -99.0 -99.0 -99.0 -99.0  -99.  -99.
   30.-99.00 -99.0 -99.0 -99.0 -99.0 -99.0 -99.0 -99.0 -99.0 -99.0-99.00 -99.0 -99.0 -99.0 -99.0 -99.0  -99.  -99.
   45.-99.00 -99.0 -99.0 -99.0 -99.0 -99.0 -99.0 -99.0 -99.0 -99.0-99.00 -99.0 -99.0 -99.0 -99.0 -99.0  -99.  -99.
   60.-99.00 -99.0 -99.0 -99.0 -99.0 -99.0 -99.0 -99.0 -99.0 -99.0-99.00 -99.0 -99.0 -99.0 -99.0 -99.0  -99.  -99.
   80.-99.00 -99.0 -99.0 -99.0 -99.0 -99.0 -99.0 -99.0 -99.0 -99.0-99.00 -99.0 -99.0 -99.0 -99.0 -99.0  -99.  -99.
  100.-99.00 -99.0 -99.0 -99.0 -99.0 -99.0 -99.0 -99.0 -99.0 -99.0-99.00 -99.0 -99.0 -99.0 -99.0 -99.0  -99.  -99.
  150.-99.00 -99.0 -99.0 -99.0 -99.0 -99.0 -99.0 -99.0 -99.0 -99.0-99.00 -99.0 -99.0 -99.0 -99.0 -99.0  -99.  -99.
  200.-99.00 -99.0 -99.0 -99.0 -99.0 -99.0 -99.0 -99.0 -99.0 -99.0-99.00 -99.0 -99.0 -99.0 -99.0 -99.0  -99.  -99.
                    
    5.-99.00-99.00-99.00-99.00
   15.-99.00-99.00-99.00-99.00
   30.-99.00-99.00-99.00-99.00
   45.-99.00-99.00-99.00-99.00
   60.-99.00-99.00-99.00-99.00
   80.-99.00-99.00-99.00-99.00
  100.-99.00-99.00-99.00-99.00
  150.-99.00-99.00-99.00-99.00
  200.-99.00-99.00-99.00-99.00
*CULTIVAR           
990001 LONG SEASON      IB0001  320.0 0.520 940.0 620.0  6.00 38.90
