*MODEL INPUT FILE            A     1     1     1     1     0
*FILES              
MODEL          MZCER048
FILEX          USMZ8001.SNX                                                                                 
FILEA          USMZ8001.SNA                                                                                 
FILET          USMZ8001.SNT                                                                                 
SPECIES        MZCER048.SPE C:\DSSAT48\GENOTYPE\                                                            
ECOTYPE        MZCER048.ECO C:\DSSAT48\GENOTYPE\                                                            
CULTIVAR       MZCER048.CUL                                                                                 
PESTS          MZCER048.PST C:\DSSAT48\PEST\                                                                
SOILS          US.SOL                                                                                       
WEATHERW       GHCP.WTH                                                                                     
OUTPUT         OVERVIEW
*SIMULATION CONTROL 
                  14     1     S 2010032  2150 Rainfed                  
                   Y     Y     N     N     N     N     N     N     M
                   M     M     E     R     S     C     R     1     P     S     2     D     0
                   F     R     D     D     M
                   N     E     Y    14     N     N     N     N     N     N     0     N     N
!AUTOMATIC MANAGEM  
               2010105 2010135   40.  100.   30.   40.   10.
                 30.   50.  100. GS000 IR001  10.0 1.000
                 30.   10.   50. FE001 GS000
                100.     1   20.
                     0     -99  100.    0.
*EXP.DETAILS        
  1USMZ8001 SN USA, maize template file                                    
*TREATMENTS         
  1 1 1 0 Maize rainfed            
*CULTIVARS          
   MZ 990001 LONG SEASON     
*FIELDS             
   GENERIC2 GHCP.WTH   0.0  -99.   -99  -99. 100.0   -99 Loam   -99. US02653709-99.00 -99.0
    -78.0000000000   39.0000000000   -99.000               1.0  100.   1.0 -99.0 FH302    10
*INITIAL CONDITIONS 
   MZ    2010032    10     0  1.00  1.00 -99.0   100  0.80  0.00  100.    5.
      5. 0.148 0.030 0.270
     15. 0.158 0.030 0.270
     30. 0.172 0.030 0.270
     45. 0.186 0.030 0.270
     60. 0.186 0.030 0.270
     80. 0.186 0.030 0.270
    100. 0.186 0.030 0.270
    150. 0.175 0.030 0.270
    200. 0.175 0.030 0.270
*PLANTING DETAILS   
       -99     -99   5.0   5.0     S     R   70.  -99.   5.0  -99.  -99. -99.0 -99.0 -99.0
*IRRIGATION         
   1.000    0.    0.    0. GS000 IR001   0.0
*FERTILIZERS        
         0 FE005 AP002    5.   60.    0.  -99.  -99.  -99.   -99
        25 FE005 AP002    5.   80.    0.  -99.  -99.  -99.   -99
        50 FE005 AP002    5.   60.    0.  -99.  -99.  -99.   -99
*RESIDUES           
         0 RE003   250  0.00  0.00  0.00    0.  -99.   -99
*CHEMICALS          
*TILLAGE            
*ENVIRONMENT        
*HARVEST            
*SOIL               
 US02653709    USA       Loam   -99.    ISRIC soilgrids + HC27                         
 -99              US      38.792 -77.542     HC_GEN0011                                    
 BK     0.10   6.0  0.50   75.  1.00  1.00 SA001 SA001 SA001 -99  
    5.       0.117 0.241 0.393 1.000  1.01  1.48 1.400  19.2  37.1 -99.0 0.120  5.24-99.00 14.10-99.00
   15.       0.127 0.251 0.396 0.850 0.850  1.50 0.870  20.9  36.2 -99.0 0.090  5.31-99.00 12.40-99.00
   30.       0.141 0.267 0.401 0.700 0.670  1.53 0.690  23.4  35.2 -99.0 0.070  5.41-99.00 12.10-99.00
   45.       0.155 0.280 0.405 0.500 0.530  1.58 0.630  25.7  33.8 -99.0 0.060  5.51-99.00 12.60-99.00
   60.       0.155 0.280 0.405 0.500 0.530  1.58 0.630  25.7  33.8 -99.0 0.060  5.51-99.00 12.60-99.00
   80.       0.155 0.279 0.404 0.380 0.540  1.64 0.610  25.6  33.2 -99.0 0.050  5.65-99.00 12.60-99.00
  100.       0.155 0.279 0.404 0.380 0.540  1.64 0.610  25.6  33.2 -99.0 0.050  5.65-99.00 12.60-99.00
  150.       0.145 0.267 0.400 0.050 0.650  1.70 0.600  24.0  32.9 -99.0 0.050  5.84-99.00 12.60-99.00
  200.       0.145 0.267 0.400 0.050 0.650  1.70 0.600  24.0  32.9 -99.0 0.050  5.84-99.00 12.60-99.00
                    
    5.-99.00 -99.0 -99.0 -99.0 -99.0 -99.0 -99.0 -99.0 -99.0 -99.0-99.00 -99.0 -99.0 -99.0 -99.0 -99.0  -99.  -99.
   15.-99.00 -99.0 -99.0 -99.0 -99.0 -99.0 -99.0 -99.0 -99.0 -99.0-99.00 -99.0 -99.0 -99.0 -99.0 -99.0  -99.  -99.
   30.-99.00 -99.0 -99.0 -99.0 -99.0 -99.0 -99.0 -99.0 -99.0 -99.0-99.00 -99.0 -99.0 -99.0 -99.0 -99.0  -99.  -99.
   45.-99.00 -99.0 -99.0 -99.0 -99.0 -99.0 -99.0 -99.0 -99.0 -99.0-99.00 -99.0 -99.0 -99.0 -99.0 -99.0  -99.  -99.
   60.-99.00 -99.0 -99.0 -99.0 -99.0 -99.0 -99.0 -99.0 -99.0 -99.0-99.00 -99.0 -99.0 -99.0 -99.0 -99.0  -99.  -99.
   80.-99.00 -99.0 -99.0 -99.0 -99.0 -99.0 -99.0 -99.0 -99.0 -99.0-99.00 -99.0 -99.0 -99.0 -99.0 -99.0  -99.  -99.
  100.-99.00 -99.0 -99.0 -99.0 -99.0 -99.0 -99.0 -99.0 -99.0 -99.0-99.00 -99.0 -99.0 -99.0 -99.0 -99.0  -99.  -99.
  150.-99.00 -99.0 -99.0 -99.0 -99.0 -99.0 -99.0 -99.0 -99.0 -99.0-99.00 -99.0 -99.0 -99.0 -99.0 -99.0  -99.  -99.
  200.-99.00 -99.0 -99.0 -99.0 -99.0 -99.0 -99.0 -99.0 -99.0 -99.0-99.00 -99.0 -99.0 -99.0 -99.0 -99.0  -99.  -99.
                    
    5.-99.00-99.00-99.00-99.00
   15.-99.00-99.00-99.00-99.00
   30.-99.00-99.00-99.00-99.00
   45.-99.00-99.00-99.00-99.00
   60.-99.00-99.00-99.00-99.00
   80.-99.00-99.00-99.00-99.00
  100.-99.00-99.00-99.00-99.00
  150.-99.00-99.00-99.00-99.00
  200.-99.00-99.00-99.00-99.00
*CULTIVAR           
990001 LONG SEASON      IB0001  320.0 0.520 940.0 620.0  6.00 38.90
