*MODEL INPUT FILE            A     1     1     1     1     0
*FILES              
MODEL          MZCER048
FILEX          USMZ8001.SNX                                                                                 
FILEA          USMZ8001.SNA                                                                                 
FILET          USMZ8001.SNT                                                                                 
SPECIES        MZCER048.SPE C:\DSSAT48\GENOTYPE\                                                            
ECOTYPE        MZCER048.ECO C:\DSSAT48\GENOTYPE\                                                            
CULTIVAR       MZCER048.CUL                                                                                 
PESTS          MZCER048.PST C:\DSSAT48\PEST\                                                                
SOILS          US.SOL                                                                                       
WEATHERW       GHCP.WTH                                                                                     
OUTPUT         OVERVIEW
*SIMULATION CONTROL 
                  14     1     S 2010032  2150 Rainfed                  
                   Y     Y     N     N     N     N     N     N     M
                   M     M     E     R     S     C     R     1     P     S     2     D     0
                   F     R     D     D     M
                   N     E     Y    14     N     N     N     N     N     N     0     N     N
!AUTOMATIC MANAGEM  
               2010105 2010135   40.  100.   30.   40.   10.
                 30.   50.  100. GS000 IR001  10.0 1.000
                 30.   10.   50. FE001 GS000
                100.     1   20.
                     0     -99  100.    0.
*EXP.DETAILS        
  1USMZ8001 SN USA, maize template file                                    
*TREATMENTS         
  1 1 1 0 Maize rainfed            
*CULTIVARS          
   MZ 990001 LONG SEASON     
*FIELDS             
   GENERIC2 GHCP.WTH   0.0  -99.   -99  -99. 100.0   -99 Loam   -99. US02757137-99.00 -99.0
    -99.0000000000   37.0000000000   -99.000               1.0  100.   1.0 -99.0 FH302    10
*INITIAL CONDITIONS 
   MZ    2010032    10     0  1.00  1.00 -99.0   100  0.80  0.00  100.    5.
      5. 0.175 0.030 0.260
     15. 0.187 0.030 0.260
     30. 0.201 0.030 0.260
     45. 0.216 0.030 0.260
     60. 0.216 0.030 0.260
     80. 0.215 0.030 0.260
    100. 0.215 0.030 0.260
    150. 0.204 0.030 0.260
    200. 0.204 0.030 0.260
*PLANTING DETAILS   
       -99     -99   5.0   5.0     S     R   70.  -99.   5.0  -99.  -99. -99.0 -99.0 -99.0
*IRRIGATION         
   1.000    0.    0.    0. GS000 IR001   0.0
*FERTILIZERS        
         0 FE005 AP002    5.   60.    0.  -99.  -99.  -99.   -99
        25 FE005 AP002    5.   80.    0.  -99.  -99.  -99.   -99
        50 FE005 AP002    5.   60.    0.  -99.  -99.  -99.   -99
*RESIDUES           
         0 RE003   250  0.00  0.00  0.00    0.  -99.   -99
*CHEMICALS          
*TILLAGE            
*ENVIRONMENT        
*HARVEST            
*SOIL               
 US02757137    USA       Loam   -99.    ISRIC soilgrids + HC27                         
 -99              US      36.792 -98.542     HC_GEN0011                                    
 BK     0.10   6.0  0.50   75.  1.00  1.00 SA001 SA001 SA001 -99  
    5.       0.140 0.279 0.404 1.000 0.550  1.55 1.400  23.0  42.7 -99.0 0.120  7.40-99.00 22.90-99.00
   15.       0.152 0.291 0.409 0.850 0.460  1.57 0.870  25.0  42.0 -99.0 0.090  7.47-99.00 20.00-99.00
   30.       0.166 0.306 0.416 0.700 0.370  1.60 0.690  27.5  40.8 -99.0 0.070  7.57-99.00 19.40-99.00
   45.       0.181 0.320 0.423 0.500 0.290  1.65 0.630  30.0  39.4 -99.0 0.060  7.68-99.00 20.30-99.00
   60.       0.181 0.320 0.423 0.500 0.290  1.65 0.630  30.0  39.4 -99.0 0.060  7.68-99.00 20.30-99.00
   80.       0.181 0.319 0.422 0.380 0.300  1.71 0.610  30.1  38.9 -99.0 0.050  7.83-99.00 20.40-99.00
  100.       0.181 0.319 0.422 0.380 0.300  1.71 0.610  30.1  38.9 -99.0 0.050  7.83-99.00 20.40-99.00
  150.       0.170 0.307 0.416 0.050 0.350  1.77 0.600  28.3  38.8 -99.0 0.050  8.00-99.00 20.40-99.00
  200.       0.170 0.307 0.416 0.050 0.350  1.77 0.600  28.3  38.8 -99.0 0.050  8.00-99.00 20.40-99.00
                    
    5.-99.00 -99.0 -99.0 -99.0 -99.0 -99.0 -99.0 -99.0 -99.0 -99.0-99.00 -99.0 -99.0 -99.0 -99.0 -99.0  -99.  -99.
   15.-99.00 -99.0 -99.0 -99.0 -99.0 -99.0 -99.0 -99.0 -99.0 -99.0-99.00 -99.0 -99.0 -99.0 -99.0 -99.0  -99.  -99.
   30.-99.00 -99.0 -99.0 -99.0 -99.0 -99.0 -99.0 -99.0 -99.0 -99.0-99.00 -99.0 -99.0 -99.0 -99.0 -99.0  -99.  -99.
   45.-99.00 -99.0 -99.0 -99.0 -99.0 -99.0 -99.0 -99.0 -99.0 -99.0-99.00 -99.0 -99.0 -99.0 -99.0 -99.0  -99.  -99.
   60.-99.00 -99.0 -99.0 -99.0 -99.0 -99.0 -99.0 -99.0 -99.0 -99.0-99.00 -99.0 -99.0 -99.0 -99.0 -99.0  -99.  -99.
   80.-99.00 -99.0 -99.0 -99.0 -99.0 -99.0 -99.0 -99.0 -99.0 -99.0-99.00 -99.0 -99.0 -99.0 -99.0 -99.0  -99.  -99.
  100.-99.00 -99.0 -99.0 -99.0 -99.0 -99.0 -99.0 -99.0 -99.0 -99.0-99.00 -99.0 -99.0 -99.0 -99.0 -99.0  -99.  -99.
  150.-99.00 -99.0 -99.0 -99.0 -99.0 -99.0 -99.0 -99.0 -99.0 -99.0-99.00 -99.0 -99.0 -99.0 -99.0 -99.0  -99.  -99.
  200.-99.00 -99.0 -99.0 -99.0 -99.0 -99.0 -99.0 -99.0 -99.0 -99.0-99.00 -99.0 -99.0 -99.0 -99.0 -99.0  -99.  -99.
                    
    5.-99.00-99.00-99.00-99.00
   15.-99.00-99.00-99.00-99.00
   30.-99.00-99.00-99.00-99.00
   45.-99.00-99.00-99.00-99.00
   60.-99.00-99.00-99.00-99.00
   80.-99.00-99.00-99.00-99.00
  100.-99.00-99.00-99.00-99.00
  150.-99.00-99.00-99.00-99.00
  200.-99.00-99.00-99.00-99.00
*CULTIVAR           
990001 LONG SEASON      IB0001  320.0 0.520 940.0 620.0  6.00 38.90
