*MODEL INPUT FILE            A     1     1     1     1     0
*FILES              
MODEL          MZCER048
FILEX          GHMZ8001.SNX                                                                                 
FILEA          GHMZ8001.SNA                                                                                 
FILET          GHMZ8001.SNT                                                                                 
SPECIES        MZCER048.SPE C:\DSSAT48\GENOTYPE\                                                            
ECOTYPE        MZCER048.ECO C:\DSSAT48\GENOTYPE\                                                            
CULTIVAR       MZCER048.CUL                                                                                 
PESTS          MZCER048.PST C:\DSSAT48\PEST\                                                                
SOILS          LK.SOL                                                                                       
WEATHERW       GHCP.WTH                                                                                     
OUTPUT         OVERVIEW
*SIMULATION CONTROL 
                  10     1     S 2010121  2150 Rainfed                  
                   Y     Y     N     N     N     N     N     N     M
                   M     M     E     R     S     C     R     1     P     S     2     D     0
                   F     R     D     D     M
                   N     E     Y    14     N     N     N     N     N     N     0     N     N
!AUTOMATIC MANAGEM  
               2010244 2010303   40.  100.   30.   40.   10.
                 30.   50.  100. GS000 IR001  10.0 1.000
                 30.   10.   50. FE001 GS000
                100.     1   20.
                     0     -99  100.    0.
*EXP.DETAILS        
  1GHMZ8001 SN Ghana, maize template file                                  
*TREATMENTS         
  1 1 1 0 Maize rainfed            
*CULTIVARS          
   MZ 990001 LONG SEASON     
*FIELDS             
   GENERIC2 GHCP.WTH   0.0  -99.   -99  -99. 100.0   -99 yLoam  -99. LK04340411-99.00 -99.0
     80.8750000000    6.1250000000   -99.000               1.0  100.   1.0 -99.0 FH302    10
*INITIAL CONDITIONS 
   MZ    2010121    10     0  1.00  1.00 -99.0   100  0.80  0.00  100.    5.
      5. 0.201 0.030 0.300
     15. 0.212 0.030 0.300
     30. 0.228 0.030 0.300
     45. 0.242 0.030 0.300
     60. 0.242 0.030 0.300
     80. 0.242 0.030 0.300
    100. 0.242 0.030 0.300
    150. 0.232 0.030 0.300
    200. 0.232 0.030 0.300
*PLANTING DETAILS   
       -99     -99   5.0   5.0     S     R   70.  -99.   5.0  -99.  -99. -99.0 -99.0 -99.0
*IRRIGATION         
   1.000    0.    0.    0. GS000 IR001   0.0
*FERTILIZERS        
         0 FE005 AP002    5.   50.    0.  -99.  -99.  -99.   -99
        30 FE005 AP002    5.   50.    0.  -99.  -99.  -99.   -99
*RESIDUES           
         0 RE003   250  0.00  0.00  0.00    0.  -99.   -99
*CHEMICALS          
*TILLAGE            
*ENVIRONMENT        
*HARVEST            
*SOIL               
 LK04340411    LKA    Cl yLoam  -99.    ISRIC soilgrids + HC27                         
 -99              LK       6.292  80.958     HC_GEN0011                                    
 BK     0.10   6.0  0.50   75.  1.00  1.00 SA001 SA001 SA001 -99  
    5.       0.171 0.289 0.407 1.000 0.430  1.35 1.400  28.4  27.4 -99.0 0.120  6.14-99.00 16.60-99.00
   15.       0.182 0.301 0.411 0.850 0.350  1.36 0.870  30.3  26.5 -99.0 0.090  6.20-99.00 14.60-99.00
   30.       0.198 0.318 0.418 0.700 0.260  1.39 0.690  33.0  25.4 -99.0 0.070  6.30-99.00 14.10-99.00
   45.       0.212 0.333 0.425 0.500 0.200  1.45 0.630  35.4  24.2 -99.0 0.060  6.41-99.00 14.80-99.00
   60.       0.212 0.333 0.425 0.500 0.200  1.45 0.630  35.4  24.2 -99.0 0.060  6.41-99.00 14.80-99.00
   80.       0.212 0.332 0.424 0.380 0.200  1.51 0.610  35.4  23.6 -99.0 0.050  6.55-99.00 14.80-99.00
  100.       0.212 0.332 0.424 0.380 0.200  1.51 0.610  35.4  23.6 -99.0 0.050  6.55-99.00 14.80-99.00
  150.       0.203 0.320 0.418 0.050 0.240  1.56 0.600  33.8  23.1 -99.0 0.050  6.73-99.00 14.80-99.00
  200.       0.203 0.320 0.418 0.050 0.240  1.56 0.600  33.8  23.1 -99.0 0.050  6.73-99.00 14.80-99.00
                    
    5.-99.00 -99.0 -99.0 -99.0 -99.0 -99.0 -99.0 -99.0 -99.0 -99.0-99.00 -99.0 -99.0 -99.0 -99.0 -99.0  -99.  -99.
   15.-99.00 -99.0 -99.0 -99.0 -99.0 -99.0 -99.0 -99.0 -99.0 -99.0-99.00 -99.0 -99.0 -99.0 -99.0 -99.0  -99.  -99.
   30.-99.00 -99.0 -99.0 -99.0 -99.0 -99.0 -99.0 -99.0 -99.0 -99.0-99.00 -99.0 -99.0 -99.0 -99.0 -99.0  -99.  -99.
   45.-99.00 -99.0 -99.0 -99.0 -99.0 -99.0 -99.0 -99.0 -99.0 -99.0-99.00 -99.0 -99.0 -99.0 -99.0 -99.0  -99.  -99.
   60.-99.00 -99.0 -99.0 -99.0 -99.0 -99.0 -99.0 -99.0 -99.0 -99.0-99.00 -99.0 -99.0 -99.0 -99.0 -99.0  -99.  -99.
   80.-99.00 -99.0 -99.0 -99.0 -99.0 -99.0 -99.0 -99.0 -99.0 -99.0-99.00 -99.0 -99.0 -99.0 -99.0 -99.0  -99.  -99.
  100.-99.00 -99.0 -99.0 -99.0 -99.0 -99.0 -99.0 -99.0 -99.0 -99.0-99.00 -99.0 -99.0 -99.0 -99.0 -99.0  -99.  -99.
  150.-99.00 -99.0 -99.0 -99.0 -99.0 -99.0 -99.0 -99.0 -99.0 -99.0-99.00 -99.0 -99.0 -99.0 -99.0 -99.0  -99.  -99.
  200.-99.00 -99.0 -99.0 -99.0 -99.0 -99.0 -99.0 -99.0 -99.0 -99.0-99.00 -99.0 -99.0 -99.0 -99.0 -99.0  -99.  -99.
                    
    5.-99.00-99.00-99.00-99.00
   15.-99.00-99.00-99.00-99.00
   30.-99.00-99.00-99.00-99.00
   45.-99.00-99.00-99.00-99.00
   60.-99.00-99.00-99.00-99.00
   80.-99.00-99.00-99.00-99.00
  100.-99.00-99.00-99.00-99.00
  150.-99.00-99.00-99.00-99.00
  200.-99.00-99.00-99.00-99.00
*CULTIVAR           
990001 LONG SEASON      IB0001  320.0 0.520 940.0 620.0  6.00 38.90
