*MODEL INPUT FILE            A     1     1     1     1     0
*FILES              
MODEL          MZCER048
FILEX          USMZ8001.SNX                                                                                 
FILEA          USMZ8001.SNA                                                                                 
FILET          USMZ8001.SNT                                                                                 
SPECIES        MZCER048.SPE C:\DSSAT48\GENOTYPE\                                                            
ECOTYPE        MZCER048.ECO C:\DSSAT48\GENOTYPE\                                                            
CULTIVAR       MZCER048.CUL                                                                                 
PESTS          MZCER048.PST C:\DSSAT48\PEST\                                                                
SOILS          LK.SOL                                                                                       
WEATHERW       GHCP.WTH                                                                                     
OUTPUT         OVERVIEW
*SIMULATION CONTROL 
                  10     1     S 2010121  2150 Rainfed                  
                   Y     Y     N     N     N     N     N     N     M
                   M     M     E     R     S     C     R     1     P     S     2     D     0
                   F     R     D     D     M
                   N     E     Y    14     N     N     N     N     N     N     0     N     N
!AUTOMATIC MANAGEM  
               2010244 2010303   40.  100.   30.   40.   10.
                 30.   50.  100. GS000 IR001  10.0 1.000
                 30.   10.   50. FE001 GS000
                100.     1   20.
                     0     -99  100.    0.
*EXP.DETAILS        
  1USMZ8001 SN USA, maize template file                                    
*TREATMENTS         
  1 1 1 0 Maize rainfed            
*CULTIVARS          
   MZ 990001 LONG SEASON     
*FIELDS             
   GENERIC2 GHCP.WTH   0.0  -99.   -99  -99. 100.0   -99 Loam   -99. LK04340417-99.00 -99.0
     81.0419998169    6.4580001831   -99.000               1.0  100.   1.0 -99.0 FH302    10
*INITIAL CONDITIONS 
   MZ    2010121    10     0  1.00  1.00 -99.0   100  0.80  0.00  100.    5.
      5. 0.170 0.030 0.290
     15. 0.182 0.030 0.290
     30. 0.199 0.030 0.290
     45. 0.214 0.030 0.290
     60. 0.214 0.030 0.290
     80. 0.213 0.030 0.290
    100. 0.213 0.030 0.290
    150. 0.201 0.030 0.290
    200. 0.201 0.030 0.290
*PLANTING DETAILS   
       -99     -99   5.0   5.0     S     R   70.  -99.   5.0  -99.  -99. -99.0 -99.0 -99.0
*IRRIGATION         
   1.000    0.    0.    0. GS000 IR001   0.0
*FERTILIZERS        
         0 FE005 AP002    5.   50.    0.  -99.  -99.  -99.   -99
        30 FE005 AP002    5.   50.    0.  -99.  -99.  -99.   -99
*RESIDUES           
         0 RE003   250  0.00  0.00  0.00    0.  -99.   -99
*CHEMICALS          
*TILLAGE            
*ENVIRONMENT        
*HARVEST            
*SOIL               
 LK04340417    LKA       Loam   -99.    ISRIC soilgrids + HC27                         
 -99              LK       6.292  81.458     HC_GEN0011                                    
 BK     0.10   6.0  0.50   75.  1.00  1.00 SA001 SA001 SA001 -99  
    5.       0.142 0.255 0.397 1.000 0.740  1.39 1.400  23.5  28.5 -99.0 0.120  5.61-99.00 17.60-99.00
   15.       0.154 0.268 0.400 0.850 0.600  1.41 0.870  25.5  27.6 -99.0 0.090  5.69-99.00 15.40-99.00
   30.       0.170 0.286 0.406 0.700 0.450  1.44 0.690  28.3  26.4 -99.0 0.070  5.79-99.00 14.80-99.00
   45.       0.185 0.302 0.411 0.500 0.340  1.49 0.630  30.8  25.0 -99.0 0.060  5.90-99.00 15.50-99.00
   60.       0.185 0.302 0.411 0.500 0.340  1.49 0.630  30.8  25.0 -99.0 0.060  5.90-99.00 15.50-99.00
   80.       0.184 0.300 0.410 0.380 0.340  1.55 0.610  30.7  24.4 -99.0 0.050  6.03-99.00 15.60-99.00
  100.       0.184 0.300 0.410 0.380 0.340  1.55 0.610  30.7  24.4 -99.0 0.050  6.03-99.00 15.60-99.00
  150.       0.173 0.286 0.405 0.050 0.430  1.60 0.600  28.9  24.0 -99.0 0.050  6.21-99.00 15.50-99.00
  200.       0.173 0.286 0.405 0.050 0.430  1.60 0.600  28.9  24.0 -99.0 0.050  6.21-99.00 15.50-99.00
                    
    5.-99.00 -99.0 -99.0 -99.0 -99.0 -99.0 -99.0 -99.0 -99.0 -99.0-99.00 -99.0 -99.0 -99.0 -99.0 -99.0  -99.  -99.
   15.-99.00 -99.0 -99.0 -99.0 -99.0 -99.0 -99.0 -99.0 -99.0 -99.0-99.00 -99.0 -99.0 -99.0 -99.0 -99.0  -99.  -99.
   30.-99.00 -99.0 -99.0 -99.0 -99.0 -99.0 -99.0 -99.0 -99.0 -99.0-99.00 -99.0 -99.0 -99.0 -99.0 -99.0  -99.  -99.
   45.-99.00 -99.0 -99.0 -99.0 -99.0 -99.0 -99.0 -99.0 -99.0 -99.0-99.00 -99.0 -99.0 -99.0 -99.0 -99.0  -99.  -99.
   60.-99.00 -99.0 -99.0 -99.0 -99.0 -99.0 -99.0 -99.0 -99.0 -99.0-99.00 -99.0 -99.0 -99.0 -99.0 -99.0  -99.  -99.
   80.-99.00 -99.0 -99.0 -99.0 -99.0 -99.0 -99.0 -99.0 -99.0 -99.0-99.00 -99.0 -99.0 -99.0 -99.0 -99.0  -99.  -99.
  100.-99.00 -99.0 -99.0 -99.0 -99.0 -99.0 -99.0 -99.0 -99.0 -99.0-99.00 -99.0 -99.0 -99.0 -99.0 -99.0  -99.  -99.
  150.-99.00 -99.0 -99.0 -99.0 -99.0 -99.0 -99.0 -99.0 -99.0 -99.0-99.00 -99.0 -99.0 -99.0 -99.0 -99.0  -99.  -99.
  200.-99.00 -99.0 -99.0 -99.0 -99.0 -99.0 -99.0 -99.0 -99.0 -99.0-99.00 -99.0 -99.0 -99.0 -99.0 -99.0  -99.  -99.
                    
    5.-99.00-99.00-99.00-99.00
   15.-99.00-99.00-99.00-99.00
   30.-99.00-99.00-99.00-99.00
   45.-99.00-99.00-99.00-99.00
   60.-99.00-99.00-99.00-99.00
   80.-99.00-99.00-99.00-99.00
  100.-99.00-99.00-99.00-99.00
  150.-99.00-99.00-99.00-99.00
  200.-99.00-99.00-99.00-99.00
*CULTIVAR           
990001 LONG SEASON      IB0001  320.0 0.520 940.0 620.0  6.00 38.90
