*MODEL INPUT FILE            A     1     1     1     1     0
*FILES              
MODEL          MZCER048
FILEX          USMZ8001.SNX                                                                                 
FILEA          USMZ8001.SNA                                                                                 
FILET          USMZ8001.SNT                                                                                 
SPECIES        MZCER048.SPE C:\DSSAT48\GENOTYPE\                                                            
ECOTYPE        MZCER048.ECO C:\DSSAT48\GENOTYPE\                                                            
CULTIVAR       MZCER048.CUL                                                                                 
PESTS          MZCER048.PST C:\DSSAT48\PEST\                                                                
SOILS          LK.SOL                                                                                       
WEATHERW       GHCP.WTH                                                                                     
OUTPUT         OVERVIEW
*SIMULATION CONTROL 
                  10     1     S 2010121  2150 Rainfed                  
                   Y     Y     N     N     N     N     N     N     M
                   M     M     E     R     S     C     R     1     P     S     2     D     0
                   F     R     D     D     M
                   N     E     Y    14     N     N     N     N     N     N     0     N     N
!AUTOMATIC MANAGEM  
               2010244 2010303   40.  100.   30.   40.   10.
                 30.   50.  100. GS000 IR001  10.0 1.000
                 30.   10.   50. FE001 GS000
                100.     1   20.
                     0     -99  100.    0.
*EXP.DETAILS        
  1USMZ8001 SN USA, maize template file                                    
*TREATMENTS         
  1 1 1 0 Maize rainfed            
*CULTIVARS          
   MZ 990001 LONG SEASON     
*FIELDS             
   GENERIC2 GHCP.WTH   0.0  -99.   -99  -99. 100.0   -99 yLoam  -99. LK04340405-99.00 -99.0
     80.4580001831    6.2919998169   -99.000               1.0  100.   1.0 -99.0 FH302    10
*INITIAL CONDITIONS 
   MZ    2010121    10     0  1.00  1.00 -99.0   100  0.80  0.00  100.    5.
      5. 0.211 0.040 0.340
     15. 0.222 0.040 0.340
     30. 0.237 0.040 0.340
     45. 0.252 0.040 0.340
     60. 0.252 0.040 0.340
     80. 0.251 0.040 0.340
    100. 0.251 0.040 0.340
    150. 0.242 0.040 0.340
    200. 0.242 0.040 0.340
*PLANTING DETAILS   
       -99     -99   5.0   5.0     S     R   70.  -99.   5.0  -99.  -99. -99.0 -99.0 -99.0
*IRRIGATION         
   1.000    0.    0.    0. GS000 IR001   0.0
*FERTILIZERS        
         0 FE005 AP002    5.   50.    0.  -99.  -99.  -99.   -99
        30 FE005 AP002    5.   50.    0.  -99.  -99.  -99.   -99
*RESIDUES           
         0 RE003   250  0.00  0.00  0.00    0.  -99.   -99
*CHEMICALS          
*TILLAGE            
*ENVIRONMENT        
*HARVEST            
*SOIL               
 LK04340405    LKA    Cl yLoam  -99.    ISRIC soilgrids + HC27                         
 -99              LK       6.292  80.458     HC_GEN0011                                    
 BK     0.10   6.0  0.50   75.  1.00  1.00 SA001 SA001 SA001 -99  
    5.       0.179 0.307 0.416 1.000 0.350  1.16 1.400  29.7  32.7 -99.0 0.120  4.07-99.00 12.00-99.00
   15.       0.190 0.319 0.421 0.850 0.290  1.18 0.870  31.6  31.8 -99.0 0.090  4.14-99.00 10.50-99.00
   30.       0.205 0.334 0.429 0.700 0.220  1.21 0.690  34.2  30.6 -99.0 0.070  4.24-99.00 10.20-99.00
   45.       0.220 0.349 0.436 0.500 0.170  1.26 0.630  36.7  29.5 -99.0 0.060  4.35-99.00 10.60-99.00
   60.       0.220 0.349 0.436 0.500 0.170  1.26 0.630  36.7  29.5 -99.0 0.060  4.35-99.00 10.60-99.00
   80.       0.219 0.348 0.435 0.380 0.170  1.32 0.610  36.6  28.9 -99.0 0.050  4.49-99.00 10.70-99.00
  100.       0.219 0.348 0.435 0.380 0.170  1.32 0.610  36.6  28.9 -99.0 0.050  4.49-99.00 10.70-99.00
  150.       0.210 0.337 0.428 0.050 0.200  1.38 0.600  35.0  28.6 -99.0 0.050  4.67-99.00 10.70-99.00
  200.       0.210 0.337 0.428 0.050 0.200  1.38 0.600  35.0  28.6 -99.0 0.050  4.67-99.00 10.70-99.00
                    
    5.-99.00 -99.0 -99.0 -99.0 -99.0 -99.0 -99.0 -99.0 -99.0 -99.0-99.00 -99.0 -99.0 -99.0 -99.0 -99.0  -99.  -99.
   15.-99.00 -99.0 -99.0 -99.0 -99.0 -99.0 -99.0 -99.0 -99.0 -99.0-99.00 -99.0 -99.0 -99.0 -99.0 -99.0  -99.  -99.
   30.-99.00 -99.0 -99.0 -99.0 -99.0 -99.0 -99.0 -99.0 -99.0 -99.0-99.00 -99.0 -99.0 -99.0 -99.0 -99.0  -99.  -99.
   45.-99.00 -99.0 -99.0 -99.0 -99.0 -99.0 -99.0 -99.0 -99.0 -99.0-99.00 -99.0 -99.0 -99.0 -99.0 -99.0  -99.  -99.
   60.-99.00 -99.0 -99.0 -99.0 -99.0 -99.0 -99.0 -99.0 -99.0 -99.0-99.00 -99.0 -99.0 -99.0 -99.0 -99.0  -99.  -99.
   80.-99.00 -99.0 -99.0 -99.0 -99.0 -99.0 -99.0 -99.0 -99.0 -99.0-99.00 -99.0 -99.0 -99.0 -99.0 -99.0  -99.  -99.
  100.-99.00 -99.0 -99.0 -99.0 -99.0 -99.0 -99.0 -99.0 -99.0 -99.0-99.00 -99.0 -99.0 -99.0 -99.0 -99.0  -99.  -99.
  150.-99.00 -99.0 -99.0 -99.0 -99.0 -99.0 -99.0 -99.0 -99.0 -99.0-99.00 -99.0 -99.0 -99.0 -99.0 -99.0  -99.  -99.
  200.-99.00 -99.0 -99.0 -99.0 -99.0 -99.0 -99.0 -99.0 -99.0 -99.0-99.00 -99.0 -99.0 -99.0 -99.0 -99.0  -99.  -99.
                    
    5.-99.00-99.00-99.00-99.00
   15.-99.00-99.00-99.00-99.00
   30.-99.00-99.00-99.00-99.00
   45.-99.00-99.00-99.00-99.00
   60.-99.00-99.00-99.00-99.00
   80.-99.00-99.00-99.00-99.00
  100.-99.00-99.00-99.00-99.00
  150.-99.00-99.00-99.00-99.00
  200.-99.00-99.00-99.00-99.00
*CULTIVAR           
990001 LONG SEASON      IB0001  320.0 0.520 940.0 620.0  6.00 38.90
