*MODEL INPUT FILE            A     1     1     1     1     0
*FILES              
MODEL          MZCER048
FILEX          USMZ8001.SNX                                                                                 
FILEA          USMZ8001.SNA                                                                                 
FILET          USMZ8001.SNT                                                                                 
SPECIES        MZCER048.SPE C:\DSSAT48\GENOTYPE\                                                            
ECOTYPE        MZCER048.ECO C:\DSSAT48\GENOTYPE\                                                            
CULTIVAR       MZCER048.CUL                                                                                 
PESTS          MZCER048.PST C:\DSSAT48\PEST\                                                                
SOILS          US.SOL                                                                                       
WEATHERW       GHCP.WTH                                                                                     
OUTPUT         OVERVIEW
*SIMULATION CONTROL 
                  14     1     S 2010032  2150 Rainfed                  
                   Y     Y     N     N     N     N     N     N     M
                   M     M     E     R     S     C     R     1     P     S     2     D     0
                   F     R     D     D     M
                   N     E     Y    14     N     N     N     N     N     N     0     N     N
!AUTOMATIC MANAGEM  
               2010105 2010135   40.  100.   30.   40.   10.
                 30.   50.  100. GS000 IR001  10.0 1.000
                 30.   10.   50. FE001 GS000
                100.     1   20.
                     0     -99  100.    0.
*EXP.DETAILS        
  1USMZ8001 SN USA, maize template file                                    
*TREATMENTS         
  1 1 1 0 Maize rainfed            
*CULTIVARS          
   MZ 990001 LONG SEASON     
*FIELDS             
   GENERIC2 GHCP.WTH   0.0  -99.   -99  -99. 100.0   -99 yLoam  -99. US02964521-99.00 -99.0
    -97.0000000000   33.0000000000   -99.000               1.0  100.   1.0 -99.0 FH302    10
*INITIAL CONDITIONS 
   MZ    2010032    10     0  1.00  1.00 -99.0   100  0.80  0.00  100.    5.
      5. 0.243 0.030 0.250
     15. 0.254 0.030 0.250
     30. 0.270 0.030 0.250
     45. 0.283 0.030 0.250
     60. 0.283 0.030 0.250
     80. 0.282 0.030 0.250
    100. 0.282 0.030 0.250
    150. 0.274 0.030 0.250
    200. 0.274 0.030 0.250
*PLANTING DETAILS   
       -99     -99   5.0   5.0     S     R   70.  -99.   5.0  -99.  -99. -99.0 -99.0 -99.0
*IRRIGATION         
   1.000    0.    0.    0. GS000 IR001   0.0
*FERTILIZERS        
         0 FE005 AP002    5.   60.    0.  -99.  -99.  -99.   -99
        25 FE005 AP002    5.   80.    0.  -99.  -99.  -99.   -99
        50 FE005 AP002    5.   60.    0.  -99.  -99.  -99.   -99
*RESIDUES           
         0 RE003   250  0.00  0.00  0.00    0.  -99.   -99
*CHEMICALS          
*TILLAGE            
*ENVIRONMENT        
*HARVEST            
*SOIL               
 US02964521    USA    Cl yLoam  -99.    ISRIC soilgrids + HC27                         
 -99              US      32.792 -96.542     HC_GEN0011                                    
 BK     0.10   6.0  0.50   75.  1.00  1.00 SA001 SA001 SA001 -99  
    5.       0.209 0.345 0.436 1.000 0.200  1.63 1.400  34.9  35.3 -99.0 0.120  7.06-99.00 34.50-99.00
   15.       0.220 0.356 0.442 0.850 0.170  1.65 0.870  36.9  34.5 -99.0 0.090  7.11-99.00 30.20-99.00
   30.       0.236 0.371 0.452 0.700 0.140  1.68 0.690  39.5  33.3 -99.0 0.070  7.21-99.00 29.20-99.00
   45.       0.249 0.384 0.460 0.500 0.110  1.73 0.630  41.9  32.2 -99.0 0.060  7.33-99.00 30.60-99.00
   60.       0.249 0.384 0.460 0.500 0.110  1.73 0.630  41.9  32.2 -99.0 0.060  7.33-99.00 30.60-99.00
   80.       0.249 0.383 0.459 0.380 0.110  1.79 0.610  41.9  31.5 -99.0 0.050  7.47-99.00 30.80-99.00
  100.       0.249 0.383 0.459 0.380 0.110  1.79 0.610  41.9  31.5 -99.0 0.050  7.47-99.00 30.80-99.00
  150.       0.241 0.374 0.452 0.050 0.120  1.85 0.600  40.4  31.2 -99.0 0.050  7.65-99.00 30.70-99.00
  200.       0.241 0.374 0.452 0.050 0.120  1.85 0.600  40.4  31.2 -99.0 0.050  7.65-99.00 30.70-99.00
                    
    5.-99.00 -99.0 -99.0 -99.0 -99.0 -99.0 -99.0 -99.0 -99.0 -99.0-99.00 -99.0 -99.0 -99.0 -99.0 -99.0  -99.  -99.
   15.-99.00 -99.0 -99.0 -99.0 -99.0 -99.0 -99.0 -99.0 -99.0 -99.0-99.00 -99.0 -99.0 -99.0 -99.0 -99.0  -99.  -99.
   30.-99.00 -99.0 -99.0 -99.0 -99.0 -99.0 -99.0 -99.0 -99.0 -99.0-99.00 -99.0 -99.0 -99.0 -99.0 -99.0  -99.  -99.
   45.-99.00 -99.0 -99.0 -99.0 -99.0 -99.0 -99.0 -99.0 -99.0 -99.0-99.00 -99.0 -99.0 -99.0 -99.0 -99.0  -99.  -99.
   60.-99.00 -99.0 -99.0 -99.0 -99.0 -99.0 -99.0 -99.0 -99.0 -99.0-99.00 -99.0 -99.0 -99.0 -99.0 -99.0  -99.  -99.
   80.-99.00 -99.0 -99.0 -99.0 -99.0 -99.0 -99.0 -99.0 -99.0 -99.0-99.00 -99.0 -99.0 -99.0 -99.0 -99.0  -99.  -99.
  100.-99.00 -99.0 -99.0 -99.0 -99.0 -99.0 -99.0 -99.0 -99.0 -99.0-99.00 -99.0 -99.0 -99.0 -99.0 -99.0  -99.  -99.
  150.-99.00 -99.0 -99.0 -99.0 -99.0 -99.0 -99.0 -99.0 -99.0 -99.0-99.00 -99.0 -99.0 -99.0 -99.0 -99.0  -99.  -99.
  200.-99.00 -99.0 -99.0 -99.0 -99.0 -99.0 -99.0 -99.0 -99.0 -99.0-99.00 -99.0 -99.0 -99.0 -99.0 -99.0  -99.  -99.
                    
    5.-99.00-99.00-99.00-99.00
   15.-99.00-99.00-99.00-99.00
   30.-99.00-99.00-99.00-99.00
   45.-99.00-99.00-99.00-99.00
   60.-99.00-99.00-99.00-99.00
   80.-99.00-99.00-99.00-99.00
  100.-99.00-99.00-99.00-99.00
  150.-99.00-99.00-99.00-99.00
  200.-99.00-99.00-99.00-99.00
*CULTIVAR           
990001 LONG SEASON      IB0001  320.0 0.520 940.0 620.0  6.00 38.90
