*EXP.DETAILS: USMZ8001SN USA, maize template file                                    

*FILES
@N  EXP.DATA    AFILE        ADIR
  1 EXP         USMZ8001.SNA                                                                                 
@N  SPECIES     SPFILE       SPDIR
  1 SPE         MZCER048.SPE C:\DSSAT48\GENOTYPE\                                                            
@N  ECOTYPE     EFILE        EDIR
  1 ECO         MZCER048.ECO C:\DSSAT48\GENOTYPE\                                                            
@N  CULTIVAR    CFILE        CDIR
  1 CUL         MZCER048.CUL                                                                                 
@N  SOIL        SFILE        SDIR
  1 SOIL        LK.SOL                                                                                       
@N  WEATHER     WFILE        WDIR
  1 WEATH       GHCP.WTH                                                                                     

*SIMULATION CONTROL
@N  GENERAL     NYERS NREPS START   SDATE RSEED SNAME.................... MODEL...
  1 GE             10     1     S 2010121  2150 Rainfed                   MZCER048
@N  OPTIONS     WATER NITRO SYMBI PHOSP POTAS DISES  CHEM  TILL   CO2
  1 OP              Y     Y     N     N     N     N     N     N     M
@N  METHODS     WTHER INCON LIGHT EVAPO INFIL PHOTO HYDRO NSWIT SOMDY MESEV MESOL METMP MEGHG
  1 ME              M     M     E     R     S     C     R     1     P     S     2     D     0
@N  MANAGEMENT  PLANT IRRIG FERTI RESID HARVS
  1 MA              F     R     D     D     M
@N  OUTPUTS     FNAME OVVEW SUMRY FROPT GROUT CAOUT WAOUT NIOUT MIOUT DIOUT  LONG CHOUT OPOUT
  1 OU              N     E     Y    14     N     N     N     N     N     N     0     N     N

!AUTOMATIC MANAGEM
@N  PLANTING      PFRST   PLAST PH2OL PH2OU PH2OD PSTMX PSTMN
  1 PL          2010244 2010303   40.  100.   30.   40.   10.
@N  IRRIGATION  IMDEP ITHRL ITHRU IROFF IMETH IRAMT IREFF
  1 IR            30.   50.  100. GS000 IR001  10.0 1.000
@N  NITROGEN    NMDEP NMTHR NAMNT NCODE NAOFF
  1 NI            30.   10.   50. FE001 GS000
@N  RESIDUES    RIPCN RTIME RIDEP
  1 RE           100.     1   20.
@N  HARVEST     HFRST   HLAST HPCNP HRCNR
  1 HA              0     -99  100.    0.

*TREATMENTS
@N   R O C TNAME....................  CU  FL  SA  IC  MP  MI  MF  MR  MC  MT  ME  MH  SM
  1  1 1 0 Maize rainfed               1   1   0   1   1   0   1   1   0   0   0   0   1

*CULTIVARS
@C  CR INGENO CNAME
  1 MZ 990001 LONG SEASON     

*FIELDS
@L  ID_FIELD WSTA....  FLSA  FLOB  FLDT  FLDD  FLDS  FLST SLTX   SLDP ID_SOIL    PMALB  PMWD
  1 GENERIC2 GHCP.WTH   0.0  -99.   -99  -99.  100.   -99 yLoam  -99. LK04210805-99.00 -99.0
@L             XCRD            YCRD      ELEV              AREA  SLEN  FLWR  SLAS PRMGT
  1        80.37500         8.79200    -99.00               1.0  100.   1.0 -99.0 FH302    10

*INITIAL CONDITIONS
@C  PCR     ICDAT  ICRT  ICND  ICRN  ICRE  ICWD ICRES ICREN ICREP ICRIP ICRID
  1 MZ    2010121    10     0  1.00  1.00 -99.0   100  0.80  0.00  100.    5.
@C   ICBL  SH2O  SNH4  SNO3
  1    5. 0.199   0.0   0.3
  1   15. 0.211   0.0   0.3
  1   30. 0.227   0.0   0.3
  1   45. 0.241   0.0   0.3
  1   60. 0.241   0.0   0.3
  1   80. 0.240   0.0   0.3
  1  100. 0.240   0.0   0.3
  1  150. 0.231   0.0   0.3
  1  200. 0.231   0.0   0.3

*PLANTING DETAILS
@P    PDATE   EDATE  PPOP  PPOE  PLME  PLDS  PLRS  PLRD  PLDP  PLWT  PAGE  PENV  PLPH  SPRL
  1     -99     -99   5.0   5.0     S     R   70.  -99.   5.0  -99.  -99. -99.0 -99.0 -99.0

*IRRIGATION
@I   IEFF  IDEP  ITHR  IEPT  IOFF  IAME  IAMT
  0 1.000    0.    0.    0. GS000 IR001   0.0
@I    IDATE  IROP IRVAL

*FERTILIZERS
@F    FDATE  FMCD  FACD  FDEP  FAMN  FAMP  FAMK  FAMC  FAMO  FOCD
  1       0 FE005 AP002    5.   50.    0.  -99.  -99.  -99.   -99
  1      30 FE005 AP002    5.   50.    0.  -99.  -99.  -99.   -99

*RESIDUES
@R    RDATE  RCOD  RAMT  RESN  RESP  RESK  RINP  RDEP  RMET
  1       0 RE003   250  0.00  0.00  0.00    0.  -99.   -99

*CHEMICALS
@C    CDATE CHCOD CHAMT  CHME CHDEP   CHT

*TILLAGE
@T    TDATE TIMPL  TDEP

*ENVIRONMENT
@E    ODATE  EDAY  ERAD  EMAX  EMIN ERAIN  ECO2  EDEW EWIND

*HARVEST
@H    HDATE  HSTG  HCOM HSIZE   HPC  HBPC
