*MODEL INPUT FILE            A     1     1     1     1     0
*FILES              
MODEL          MZCER048
FILEX          USMZ8001.SNX                                                                                 
FILEA          USMZ8001.SNA                                                                                 
FILET          USMZ8001.SNT                                                                                 
SPECIES        MZCER048.SPE C:\DSSAT48\GENOTYPE\                                                            
ECOTYPE        MZCER048.ECO C:\DSSAT48\GENOTYPE\                                                            
CULTIVAR       MZCER048.CUL                                                                                 
PESTS          MZCER048.PST C:\DSSAT48\PEST\                                                                
SOILS          US.SOL                                                                                       
WEATHERW       GHCP.WTH                                                                                     
OUTPUT         OVERVIEW
*SIMULATION CONTROL 
                  14     1     S 2010032  2150 Rainfed                  
                   Y     Y     N     N     N     N     N     N     M
                   M     M     E     R     S     C     R     1     P     S     2     D     0
                   F     R     D     D     M
                   N     E     Y    14     N     N     N     N     N     N     0     N     N
!AUTOMATIC MANAGEM  
               2010105 2010135   40.  100.   30.   40.   10.
                 30.   50.  100. GS000 IR001  10.0 1.000
                 30.   10.   50. FE001 GS000
                100.     1   20.
                     0     -99  100.    0.
*EXP.DETAILS        
  1USMZ8001 SN USA, maize template file                                    
*TREATMENTS         
  1 1 1 0 Maize rainfed            
*CULTIVARS          
   MZ 990001 LONG SEASON     
*FIELDS             
   GENERIC2 GHCP.WTH   0.0  -99.   -99  -99. 100.0   -99 Loam   -99. US02394005-99.00 -99.0
   -120.0000000000   44.0000000000   -99.000               1.0  100.   1.0 -99.0 FH302    10
*INITIAL CONDITIONS 
   MZ    2010032    10     0  1.00  1.00 -99.0   100  0.80  0.00  100.    5.
      5. 0.122 0.030 0.310
     15. 0.132 0.030 0.310
     30. 0.145 0.030 0.310
     45. 0.159 0.030 0.310
     60. 0.159 0.030 0.310
     80. 0.156 0.030 0.310
    100. 0.156 0.030 0.310
    150. 0.147 0.030 0.310
    200. 0.147 0.030 0.310
*PLANTING DETAILS   
       -99     -99   5.0   5.0     S     R   70.  -99.   5.0  -99.  -99. -99.0 -99.0 -99.0
*IRRIGATION         
   1.000    0.    0.    0. GS000 IR001   0.0
*FERTILIZERS        
         0 FE005 AP002    5.   60.    0.  -99.  -99.  -99.   -99
        25 FE005 AP002    5.   80.    0.  -99.  -99.  -99.   -99
        50 FE005 AP002    5.   60.    0.  -99.  -99.  -99.   -99
*RESIDUES           
         0 RE003   250  0.00  0.00  0.00    0.  -99.   -99
*CHEMICALS          
*TILLAGE            
*ENVIRONMENT        
*HARVEST            
*SOIL               
 US02394005    USA       Loam   -99.    ISRIC soilgrids + HC27                         
 -99              US      43.792-119.542     HC_GEN0011                                    
 BK     0.10   6.0  0.50   75.  1.00  1.00 SA001 SA001 SA001 -99  
    5.       0.091 0.216 0.387 1.000  1.46  1.29 1.400  14.8  40.0 -99.0 0.120  7.02-99.00 26.80-99.00
   15.       0.101 0.226 0.389 0.850  1.24  1.31 0.870  16.5  39.1 -99.0 0.090  7.10-99.00 23.50-99.00
   30.       0.113 0.239 0.392 0.700  1.00  1.34 0.690  18.6  38.2 -99.0 0.070  7.19-99.00 22.80-99.00
   45.       0.127 0.253 0.395 0.500 0.810  1.39 0.630  20.9  37.0 -99.0 0.060  7.30-99.00 23.70-99.00
   60.       0.127 0.253 0.395 0.500 0.810  1.39 0.630  20.9  37.0 -99.0 0.060  7.30-99.00 23.70-99.00
   80.       0.125 0.250 0.395 0.380 0.830  1.45 0.610  20.7  36.5 -99.0 0.050  7.44-99.00 23.90-99.00
  100.       0.125 0.250 0.395 0.380 0.830  1.45 0.610  20.7  36.5 -99.0 0.050  7.44-99.00 23.90-99.00
  150.       0.117 0.239 0.391 0.050 0.980  1.50 0.600  19.4  36.0 -99.0 0.050  7.62-99.00 23.90-99.00
  200.       0.117 0.239 0.391 0.050 0.980  1.50 0.600  19.4  36.0 -99.0 0.050  7.62-99.00 23.90-99.00
                    
    5.-99.00 -99.0 -99.0 -99.0 -99.0 -99.0 -99.0 -99.0 -99.0 -99.0-99.00 -99.0 -99.0 -99.0 -99.0 -99.0  -99.  -99.
   15.-99.00 -99.0 -99.0 -99.0 -99.0 -99.0 -99.0 -99.0 -99.0 -99.0-99.00 -99.0 -99.0 -99.0 -99.0 -99.0  -99.  -99.
   30.-99.00 -99.0 -99.0 -99.0 -99.0 -99.0 -99.0 -99.0 -99.0 -99.0-99.00 -99.0 -99.0 -99.0 -99.0 -99.0  -99.  -99.
   45.-99.00 -99.0 -99.0 -99.0 -99.0 -99.0 -99.0 -99.0 -99.0 -99.0-99.00 -99.0 -99.0 -99.0 -99.0 -99.0  -99.  -99.
   60.-99.00 -99.0 -99.0 -99.0 -99.0 -99.0 -99.0 -99.0 -99.0 -99.0-99.00 -99.0 -99.0 -99.0 -99.0 -99.0  -99.  -99.
   80.-99.00 -99.0 -99.0 -99.0 -99.0 -99.0 -99.0 -99.0 -99.0 -99.0-99.00 -99.0 -99.0 -99.0 -99.0 -99.0  -99.  -99.
  100.-99.00 -99.0 -99.0 -99.0 -99.0 -99.0 -99.0 -99.0 -99.0 -99.0-99.00 -99.0 -99.0 -99.0 -99.0 -99.0  -99.  -99.
  150.-99.00 -99.0 -99.0 -99.0 -99.0 -99.0 -99.0 -99.0 -99.0 -99.0-99.00 -99.0 -99.0 -99.0 -99.0 -99.0  -99.  -99.
  200.-99.00 -99.0 -99.0 -99.0 -99.0 -99.0 -99.0 -99.0 -99.0 -99.0-99.00 -99.0 -99.0 -99.0 -99.0 -99.0  -99.  -99.
                    
    5.-99.00-99.00-99.00-99.00
   15.-99.00-99.00-99.00-99.00
   30.-99.00-99.00-99.00-99.00
   45.-99.00-99.00-99.00-99.00
   60.-99.00-99.00-99.00-99.00
   80.-99.00-99.00-99.00-99.00
  100.-99.00-99.00-99.00-99.00
  150.-99.00-99.00-99.00-99.00
  200.-99.00-99.00-99.00-99.00
*CULTIVAR           
990001 LONG SEASON      IB0001  320.0 0.520 940.0 620.0  6.00 38.90
